version 2
run General-4-20111202-23:03:26-25976
attr configname General
attr datetime 20111202-23:03:26
attr experiment General
attr inifile /home/martin/travaux/inrs/simulator/inetmanet/examples/wireless/lan80211e/omnetpp.ini
attr iterationvars $0=8
attr iterationvars2 "$0=8, $repetition=0"
attr measurement $0=8
attr network Ecko
attr processid 25976
attr repetition 0
attr replication #0
attr resultdir results
attr runnumber 4
attr seedset 4

