version 2
run General-17-20111202-22:04:07-23260
attr configname General
attr datetime 20111202-22:04:07
attr experiment General
attr inifile /home/martin/travaux/inrs/simulator/inetmanet/examples/wireless/lan80211e/omnetpp.ini
attr iterationvars $0=36
attr iterationvars2 "$0=36, $repetition=0"
attr measurement $0=36
attr network Ecko
attr processid 23260
attr repetition 0
attr replication #0
attr resultdir results
attr runnumber 17
attr seedset 17

