version 2
run General-15-20111202-21:39:31-22607
attr configname General
attr datetime 20111202-21:39:31
attr experiment General
attr inifile /home/martin/travaux/inrs/simulator/inetmanet/examples/wireless/lan80211e/omnetpp.ini
attr iterationvars $0=32
attr iterationvars2 "$0=32, $repetition=0"
attr measurement $0=32
attr network Ecko
attr processid 22607
attr repetition 0
attr replication #0
attr resultdir results
attr runnumber 15
attr seedset 15

