version 2
run General-8-20111202-23:05:51-26048
attr configname General
attr datetime 20111202-23:05:51
attr experiment General
attr inifile /home/martin/travaux/inrs/simulator/inetmanet/examples/wireless/lan80211e/omnetpp.ini
attr iterationvars $0=12
attr iterationvars2 "$0=12, $repetition=0"
attr measurement $0=12
attr network Ecko
attr processid 26048
attr repetition 0
attr replication #0
attr resultdir results
attr runnumber 8
attr seedset 8

