version 2
run General-9-20111202-23:06:28-26069
attr configname General
attr datetime 20111202-23:06:28
attr experiment General
attr inifile /home/martin/travaux/inrs/simulator/inetmanet/examples/wireless/lan80211e/omnetpp.ini
attr iterationvars $0=13
attr iterationvars2 "$0=13, $repetition=0"
attr measurement $0=13
attr network Ecko
attr processid 26069
attr repetition 0
attr replication #0
attr resultdir results
attr runnumber 9
attr seedset 9

