version 2
run General-6-20111202-23:04:39-26012
attr configname General
attr datetime 20111202-23:04:39
attr experiment General
attr inifile /home/martin/travaux/inrs/simulator/inetmanet/examples/wireless/lan80211e/omnetpp.ini
attr iterationvars $0=10
attr iterationvars2 "$0=10, $repetition=0"
attr measurement $0=10
attr network Ecko
attr processid 26012
attr repetition 0
attr replication #0
attr resultdir results
attr runnumber 6
attr seedset 6

