version 2
run General-2-20111202-23:02:14-25939
attr configname General
attr datetime 20111202-23:02:14
attr experiment General
attr inifile /home/martin/travaux/inrs/simulator/inetmanet/examples/wireless/lan80211e/omnetpp.ini
attr iterationvars $0=6
attr iterationvars2 "$0=6, $repetition=0"
attr measurement $0=6
attr network Ecko
attr processid 25939
attr repetition 0
attr replication #0
attr resultdir results
attr runnumber 2
attr seedset 2

