version 2
run General-1-20111202-23:01:38-25918
attr configname General
attr datetime 20111202-23:01:38
attr experiment General
attr inifile /home/martin/travaux/inrs/simulator/inetmanet/examples/wireless/lan80211e/omnetpp.ini
attr iterationvars $0=5
attr iterationvars2 "$0=5, $repetition=0"
attr measurement $0=5
attr network Ecko
attr processid 25918
attr repetition 0
attr replication #0
attr resultdir results
attr runnumber 1
attr seedset 1

