version 2
run General-16-20111202-21:41:17-22630
attr configname General
attr datetime 20111202-21:41:17
attr experiment General
attr inifile /home/martin/travaux/inrs/simulator/inetmanet/examples/wireless/lan80211e/omnetpp.ini
attr iterationvars $0=34
attr iterationvars2 "$0=34, $repetition=0"
attr measurement $0=34
attr network Ecko
attr processid 22630
attr repetition 0
attr replication #0
attr resultdir results
attr runnumber 16
attr seedset 16

